# hf/3-21g geom=connectivity

Title Card Required

0 1
 C                 0. 0. 0.
 H                 -0.9643446839741914 0.5091650171014546 0.24427661976108864
 H                 0.7761415911532701 0.7357291550639944 0.03473961529567369
 H                 0.0 -0.5908074893651136 -0.8921022982315936
 C                 0.0 -0.8713370330839584 1.232256635111552
 H                 0.0 -0.28052954371884475 2.124358933343146
 H                 0.9643446839741914 -1.380502050185413 0.9879800153504634
 H                 -0.7761415911532701 -1.6070661881479529 1.1975170198158784

 1 2 1.0 3 1.0 4 1.0 5 1.0
 2
 3
 4
 5 6 1.0 7 1.0 8 1.0
 6
 7
 8

