# hf/3-21g geom=connectivity

Title Card Required

0 1
 C                 0. 0. 0.
 H                 -0.7463530280607472 -0.140667914865521 0.9452874987176866
 H                 0.4934025904821098 0.9430062953056406 0.11042196665281172
 H                 0.0 -0.5350000000000003 -0.9266471820493494
 C                 0.0 -0.8357722562233887 1.1819604459233255
 H                 0.0 -0.30077225622338843 2.108607627972675
 H                 0.7463530280607472 -0.6951043413578677 0.23667294720563892
 H                 -0.4934025904821098 -1.7787785515290293 1.0715384792705138

 1 2 1.0 3 1.0 4 1.0 5 1.0
 2
 3
 4
 5 6 1.0 7 1.0 8 1.0
 6
 7
 8

