# hf/3-21g geom=connectivity

Title Card Required

0 1
 C                 0. 0. 0.
 H                 0.0 -0.782425090932534 1.1065161621409856
 H                 0.0 1.0519846727608162 0.1955204548795814
 H                 0.0 -0.44772185647218105 -0.9718256732753585
 C                 0.0 -0.7824250909325341 1.1065161621409856
 H                 0.0 -0.33470323446035305 2.078341835416344
 H                 0.0 -1.1102230246251565e-16 0.0
 H                 0.0 -1.8344097636933503 0.9109957072614042

 1 2 1.0 3 1.0 4 1.0 5 1.0
 2
 3
 4
 5 6 1.0 7 1.0 8 1.0
 6
 7
 8

