# hf/3-21g geom=connectivity

Title Card Required

0 1
 C                 0. 0. 0.
 H                 -0.4299096918763776 -0.4660454004628916 1.0889974101511533
 H                 0.3240077969493195 1.009399337620409 0.14502387640498615
 H                 0.0 -0.5063007170328945 -0.9426343850783172
 C                 0.0 -0.8179898677931038 1.1568123513292121
 H                 0.0 -0.3116891507602093 2.099446736407529
 H                 0.4299096918763776 -0.3519444673302122 0.06781494117805886
 H                 -0.3240077969493195 -1.8273892054135126 1.0117884749242259

 1 2 1.0 3 1.0 4 1.0 5 1.0
 2
 3
 4
 5 6 1.0 7 1.0 8 1.0
 6
 7
 8

