# hf/3-21g geom=connectivity

Title Card Required

0 1
 C                 0. 0. 0.
 H                 -0.17581164966308005 -0.6629498030034147 1.11336424123087
 H                 0.15522831823065392 1.0443338295042432 0.17369807647836838
 H                 0.0 -0.4771795083604849 -0.9577054436520896
 C                 0.0 -0.800207479362819 1.131664256735099
 H                 0.0 -0.3230279710023341 2.0893697003871887
 H                 0.17581164966308005 -0.13725767635940433 0.018300015504228995
 H                 -0.15522831823065392 -1.8445413088670621 0.9579661802567305

 1 2 1.0 3 1.0 4 1.0 5 1.0
 2
 3
 4
 5 6 1.0 7 1.0 8 1.0
 6
 7
 8

